LTspice 24.0.12 for Windows
Circuit: * C:\Users\emman\OneDrive\Documents\S6\APP1\S6App1\Emmanuel\LTSpice\Draft2.asc
Start Time: Tue May  7 11:29:56 2024
Warning: Multiple definitions of model "2scr375p" Type: BJT
Warning: Multiple definitions of model "bc857b" Type: BJT
Warning: Multiple definitions of model "bc847c" Type: BJT
Warning: Multiple definitions of model "bc847b" Type: BJT
solver = Normal
Maximum thread count: 8
tnom = 27
temp = 27
method = modified trap
.dc: Increment so large that there's only one step.
.step v3=1.2
.step v3=1.6
Total elapsed time: 0.131 seconds.

