LTspice 24.0.12 for Windows
Circuit: * C:\Users\emman\OneDrive\Documents\S6\APP1\S6App1\Emmanuel\LTSpice\Labo 1 FET.asc
Start Time: Tue May  7 11:08:16 2024
solver = Normal
Maximum thread count: 8
tnom = 27
temp = 27
method = modified trap
.OP point found by inspection.
.step v1=0
.step v1=1
.step v1=2
.step v1=3
.step v1=4
.step v1=5
.step v1=6
.step v1=7
.step v1=8
.step v1=9
.step v1=10
Total elapsed time: 0.289 seconds.

