Circuit: * C:\Users\dubj0904\Documents\GitHub\S6App1\Jeremy\Draft2.asc

Warning: Multiple definitions of model "2scr375p" Type: BJT
Warning: Multiple definitions of model "bc857b" Type: BJT
Warning: Multiple definitions of model "bc847c" Type: BJT
Warning: Multiple definitions of model "bc847b" Type: BJT
WARNING: Node N003 is floating.

Direct Newton iteration failed to find .op point.  (Use ".option noopiter" to skip.)
Starting Gmin stepping
Gmin = 10
Gmin = 1.07374
Gmin = 0.115292
Gmin = 0.0123794
Gmin = 0.00132923
Gmin = 0.000142725
Gmin = 1.5325e-05
Gmin = 1.6455e-06
Gmin = 1.76685e-07
Gmin = 1.89714e-08
Gmin = 2.03704e-09
Gmin = 2.18725e-10
vernier = 0.5
Gmin = 4.07733e-11
vernier = 0.25
vernier = 0.333333
Gmin = 2.45944e-11
vernier = 0.444444
vernier = 0.222222
vernier = 0.111111
vernier = 0.0555555
Gmin = 1.93166e-11
vernier = 0.0277778
vernier = 0.0138889
vernier = 0.00694444
Gmin = 1.89849e-11
vernier = 0.00347222
vernier = 0.00173611
Gmin = 1.88537e-11
vernier = 0.000868055
vernier = 0.000434028
Gmin = 0
Gmin stepping failed

Starting source stepping with srcstepmethod=0
Source Step = 3.0303%
Source Step = 33.3333%
Singular matrix:  Check node n002
   Iteration No. 24
Source Step = 42.4242%
Singular matrix:  Check node n002
   Iteration No. 19
Source Step = 50%
Source Step = 57.5758%
Singular matrix:  Check node n002
   Iteration No. 109
Source Step = 65.1515%
Source Step = 72.7273%
Source Step = 80.303%
Source Step = 87.8788%
Starting source stepping with srcstepmethod=1
Source Step = 3.0303%
Source Step = 33.3333%
Source Step = 63.6364%
Source stepping failed

Singular matrix:  Check node n002
   Iteration No. 6
Fatal Error: Singular matrix:  check node n002
   Iteration No. 6

This circuit has floating nodes.
