Circuit: * C:\Users\dubj0904\Documents\GitHub\S6App1\Jeremy\Lab1E4.asc

Error on line 2 : v1 0 vg v
	 Unknown parameter "v"
v1: Missing value, assumed 0V @ DC
.OP point found by inspection.
.step v2=0
.step v2=0.1
.step v2=0.2
.step v2=0.3
.step v2=0.4
.step v2=0.5
.step v2=0.6
.step v2=0.7
.step v2=0.8
.step v2=0.9
.step v2=1
.step v2=1.1
.step v2=1.2
.step v2=1.3
.step v2=1.4
.step v2=1.5
.step v2=1.6
.step v2=1.7
.step v2=1.8
.step v2=1.9
.step v2=2
.step v2=2.1
.step v2=2.2
.step v2=2.3
.step v2=2.4
.step v2=2.5
.step v2=2.6
.step v2=2.7
.step v2=2.8
.step v2=2.9
.step v2=3
.step v2=3.1
.step v2=3.2
.step v2=3.3
.step v2=3.4
.step v2=3.5
.step v2=3.6
.step v2=3.7
.step v2=3.8
.step v2=3.9
.step v2=4
.step v2=4.1
.step v2=4.2
.step v2=4.3
.step v2=4.4
.step v2=4.5
.step v2=4.6
.step v2=4.7
.step v2=4.8
.step v2=4.9
.step v2=5
.step v2=5.1
.step v2=5.2
.step v2=5.3
.step v2=5.4
.step v2=5.5
.step v2=5.6
.step v2=5.7
.step v2=5.8
.step v2=5.9
.step v2=6
.step v2=6.1
.step v2=6.2
.step v2=6.3
.step v2=6.4
.step v2=6.5
.step v2=6.6
.step v2=6.7
.step v2=6.8
.step v2=6.9
.step v2=7
.step v2=7.1
.step v2=7.2
.step v2=7.3
.step v2=7.4
.step v2=7.5
.step v2=7.6
.step v2=7.7
.step v2=7.8
.step v2=7.9
.step v2=8
.step v2=8.1
.step v2=8.2
.step v2=8.3
.step v2=8.4
.step v2=8.5
.step v2=8.6
.step v2=8.7
.step v2=8.8
.step v2=8.9
.step v2=9
.step v2=9.1
.step v2=9.2
.step v2=9.3
.step v2=9.4
.step v2=9.5
.step v2=9.6
.step v2=9.7
.step v2=9.8
.step v2=9.9
.step v2=10
.step v2=10.1
.step v2=10.2
.step v2=10.3
.step v2=10.4
.step v2=10.5
.step v2=10.6
.step v2=10.7
.step v2=10.8
.step v2=10.9
.step v2=11
.step v2=11.1
.step v2=11.2
.step v2=11.3
.step v2=11.4
.step v2=11.5
.step v2=11.6
.step v2=11.7
.step v2=11.8
.step v2=11.9
.step v2=12

Date: Tue May  7 11:08:57 2024
Total elapsed time: 0.613 seconds.

tnom = 27
temp = 27
method = trap
totiter = 6652
traniter = 0
tranpoints = 0
accept = 0
rejected = 0
matrix size = 9
fillins = 0
solver = Normal
Avg thread counts: 1.6/0.0/3.8/1.6
Matrix Compiler1: 556 bytes object code size  0.4/0.4/[0.4]
Matrix Compiler2: 707 bytes object code size  0.3/0.4/[0.2]

