Circuit: * C:\Users\dubj0904\Documents\GitHub\S6App1\Jeremy\LaboE3.asc

Warning: Multiple definitions of model "2scr375p" Type: BJT
Warning: Multiple definitions of model "bc857b" Type: BJT
Warning: Multiple definitions of model "bc847c" Type: BJT
Warning: Multiple definitions of model "bc847b" Type: BJT
.OP point found by inspection.
.step i1=0
.step i1=1e-08
.step i1=2e-08
.step i1=3e-08
.step i1=4e-08
.step i1=5e-08
.step i1=6e-08
.step i1=7e-08
.step i1=8e-08
.step i1=9e-08
.step i1=1e-07
.step i1=1.1e-07
.step i1=1.2e-07
.step i1=1.3e-07
.step i1=1.4e-07
.step i1=1.5e-07
.step i1=1.6e-07
.step i1=1.7e-07
.step i1=1.8e-07
.step i1=1.9e-07
.step i1=2e-07
.step i1=2.1e-07
.step i1=2.2e-07
.step i1=2.3e-07
.step i1=2.4e-07
.step i1=2.5e-07
.step i1=2.6e-07
.step i1=2.7e-07
.step i1=2.8e-07
.step i1=2.9e-07
.step i1=3e-07
.step i1=3.1e-07
.step i1=3.2e-07
.step i1=3.3e-07
.step i1=3.4e-07
.step i1=3.5e-07
.step i1=3.6e-07
.step i1=3.7e-07
.step i1=3.8e-07
.step i1=3.9e-07
.step i1=4e-07
.step i1=4.1e-07
.step i1=4.2e-07
.step i1=4.3e-07
.step i1=4.4e-07
.step i1=4.5e-07
.step i1=4.6e-07
.step i1=4.7e-07
.step i1=4.8e-07
.step i1=4.9e-07
.step i1=5e-07

Date: Mon May  6 15:44:20 2024
Total elapsed time: 0.510 seconds.

tnom = 27
temp = 27
method = trap
totiter = 11210
traniter = 0
tranpoints = 0
accept = 0
rejected = 0
matrix size = 6
fillins = 0
solver = Normal
Avg thread counts: 1.4/0.0/1.8/1.4
Matrix Compiler1:      20 opcodes  0.1/[0.1]/0.1
Matrix Compiler2: 462 bytes object code size  0.1/0.1/[0.1]

