LTspice 24.0.12 for Windows
Circuit: * C:\Users\Jeremy Dube\OneDrive\Documents\1. Jeremy\1. School\9. 2024S\S6App1\Jeremy\S6e_APP1_schematique+librairies\S6eAPP1_probl_initiale_2024.asc
Start Time: Sun May 12 22:51:07 2024
Warning: Multiple definitions of model "2scr375p" Type: BJT
Warning: Multiple definitions of model "bc857b" Type: BJT
Warning: Multiple definitions of model "bc847c" Type: BJT
Warning: Multiple definitions of model "bc847b" Type: BJT
solver = Normal
Maximum thread count: 16
tnom = 27
temp = 27
method = modified trap
Direct Newton iteration for .op point succeeded.
Total elapsed time: 0.202 seconds.

