Circuit: * C:\Users\dubj0904\Downloads\S6e_APP1_schematique+librairies\S6eAPP1_probl_initiale_2024.asc

Warning: Multiple definitions of model "2scr375p" Type: BJT
Warning: Multiple definitions of model "bc857b" Type: BJT
Warning: Multiple definitions of model "bc847c" Type: BJT
Warning: Multiple definitions of model "bc847b" Type: BJT
Direct Newton iteration for .op point succeeded.

Date: Mon May  6 14:53:04 2024
Total elapsed time: 0.085 seconds.

tnom = 27
temp = 27
method = trap
totiter = 35
traniter = 0
tranpoints = 0
accept = 0
rejected = 0
matrix size = 30
fillins = 12
solver = Normal
Avg thread counts: 12.0/0.0/12.0/7.0
Matrix Compiler1:     164 opcodes
Matrix Compiler2:     227 opcodes
