Circuit: * C:\Users\dubj0904\Documents\GitHub\S6App1\Jeremy\S6e_APP1_schematique+librairies\S6eAPP1_probl_initiale_2024.asc

Warning: Multiple definitions of model "2scr375p" Type: BJT
Warning: Multiple definitions of model "bc857b" Type: BJT
Warning: Multiple definitions of model "bc847c" Type: BJT
Warning: Multiple definitions of model "bc847b" Type: BJT
Direct Newton iteration for .op point succeeded.

Date: Mon May 13 17:18:50 2024
Total elapsed time: 0.484 seconds.

tnom = 27
temp = 27
method = modified trap
totiter = 44525
traniter = 44494
tranpoints = 17590
accept = 13160
rejected = 4430
matrix size = 30
fillins = 12
solver = Normal
Avg thread counts: 1.0/1.1/1.1/1.0
Matrix Compiler1: 2.94 KB object code size  0.5/0.4/[0.2]
Matrix Compiler2: 2.95 KB object code size  0.3/0.5/[0.3]

